/*--------------------------------*- C++ -*----------------------------------*\
| =========                 |                                                 |
| \\      /  F ield         | OpenFOAM Extend Project: Open Source CFD        |
|  \\    /   O peration     | Version:  1.6-ext                               |
|   \\  /    A nd           | Web:      www.extend-project.de                 |
|    \\/     M anipulation  |                                                 |
\*---------------------------------------------------------------------------*/
FoamFile
{
    version     2.0;
    format      ascii;
    class       dictionary;
    object      controlDict;
}
// * * * * * * * * * * * * * * * * * * * * * * * * * * * * * * * * * * * * * //

application icoDyMFoam;

startFrom       latestTime;

startTime       0;

stopAt          endTime;

endTime         1;

deltaT          0.02;

// writeControl    timeStep;
writeControl runTime;

writeInterval 0.1;

purgeWrite      0;

writeFormat     binary;

writePrecision  6;

writeCompression compressed;

timeFormat      general;

timePrecision   6;

runTimeModifiable yes;

adjustTimeStep  no;

maxCo           0.2;

libs ( "libimmersedBoundary.so");

functions
(
    forces
    {
        type               immersedBoundaryForces;
        functionObjectLibs ("libimmersedBoundaryForceFunctionObject.so");

        outputControl timeStep;
        outputInterval 1;
        patches ( ibCylinder );

        pName       p;
        UName       U;
        rhoName     rhoInf;
        rhoInf      1;

        log         true;
        CofR        ( 0 0 0 );

        Aref 0.05;
        Uref 1;
    }
);


// ************************************************************************* //
